dss/import/1-Enero/Archivos_DSS/DMin_7hs_Domingo_Mes_01_2022.txt
New Load.Carga_IDSeta_2943 phases=3 bus1=X_2943.1.2.3.0 kv=0.38 kW=73.00987831748687 pf=0.871 status=variable model=1 CVRwatts=0.8 CVRvars=3 Class=1 conn=wye
New Load.Carga_IDSeta_3012 phases=3 bus1=X_3012.1.2.3.0 kv=0.38 kW=39.672304875664956 pf=0.889 status=variable model=1 CVRwatts=0.8 CVRvars=3 Class=1 conn=wye
New Load.Carga_IDSeta_2982 phases=3 bus1=X_2982.1.2.3.0 kv=0.38 kW=5.699170837669155 pf=0.93 status=variable model=1 CVRwatts=0.8 CVRvars=3 Class=1 conn=wye
New Load.Carga_IDSeta_2986 phases=3 bus1=X_2986.1.2.3.0 kv=0.38 kW=30.891517565903698 pf=0.93 status=variable model=1 CVRwatts=0.8 CVRvars=3 Class=1 conn=wye
New Load.Carga_IDSeta_205 phases=3 bus1=X_205.1.2.3.0 kv=0.38 kW=2.071263526011315 pf=0.877 status=variable model=1 CVRwatts=0.8 CVRvars=3 Class=1 conn=wye
New Load.Carga_IDSeta_1354 phases=3 bus1=X_1354.1.2.3.0 kv=0.38 kW=3.564400430358549 pf=0.877 status=variable model=1 CVRwatts=0.8 CVRvars=3 Class=1 conn=wye
New Load.Carga_IDSeta_2073 phases=3 bus1=X_2073.1.2.3.0 kv=0.38 kW=3.169404337813689 pf=0.877 status=variable model=1 CVRwatts=0.8 CVRvars=3 Class=1 conn=wye
New Load.Carga_IDSeta_828 phases=3 bus1=X_828.1.2.3.0 kv=0.38 kW=6.413689849405351 pf=0.93 status=variable model=1 CVRwatts=0.8 CVRvars=3 Class=1 conn=wye
New Load.Carga_IDSeta_115 phases=3 bus1=X_115.1.2.3.0 kv=0.38 kW=12.402848293300163 pf=0.93 status=variable model=1 CVRwatts=0.8 CVRvars=3 Class=1 conn=wye
New Load.Carga_IDSeta_1245 phases=3 bus1=X_1245.1.2.3.0 kv=0.38 kW=12.745907666268115 pf=0.877 status=variable model=1 CVRwatts=0.8 CVRvars=3 Class=1 conn=wye
New Load.Carga_IDSeta_848 phases=3 bus1=X_848.1.2.3.0 kv=0.38 kW=9.267583866246218 pf=0.877 status=variable model=1 CVRwatts=0.8 CVRvars=3 Class=1 conn=wye
New Load.Carga_IDSeta_1945 phases=3 bus1=X_1945.1.2.3.0 kv=0.38 kW=45.50284754438296 pf=0.877 status=variable model=1 CVRwatts=0.8 CVRvars=3 Class=1 conn=wye
New Load.Carga_IDSeta_2970 phases=3 bus1=X_2970.1.2.3.0 kv=0.38 kW=3.7658168904000346 pf=0.877 status=variable model=1 CVRwatts=0.8 CVRvars=3 Class=1 conn=wye
New Load.Carga_IDSeta_2971 phases=3 bus1=X_2971.1.2.3.0 kv=0.38 kW=32.89196456241906 pf=0.877 status=variable model=1 CVRwatts=0.8 CVRvars=3 Class=1 conn=wye
New Load.Carga_IDSeta_3002 phases=3 bus1=X_3002.1.2.3.0 kv=0.38 kW=16.795768652475356 pf=0.93 status=variable model=1 CVRwatts=0.8 CVRvars=3 Class=1 conn=wye
New Load.Carga_IDSeta_1067 phases=3 bus1=X_1067.1.2.3.0 kv=0.38 kW=1.5897068323271513 pf=0.93 status=variable model=1 CVRwatts=0.8 CVRvars=3 Class=1 conn=wye
New Load.Carga_IDSeta_821 phases=3 bus1=X_821.1.2.3.0 kv=0.38 kW=21.675528564985253 pf=0.93 status=variable model=1 CVRwatts=0.8 CVRvars=3 Class=1 conn=wye
New Load.Carga_IDSeta_210 phases=3 bus1=X_210.1.2.3.0 kv=0.38 kW=0.48592517799975365 pf=0.93 status=variable model=1 CVRwatts=0.8 CVRvars=3 Class=1 conn=wye
New Load.Carga_IDSeta_784 phases=3 bus1=X_784.1.2.3.0 kv=0.38 kW=50.33505593828631 pf=0.93 status=variable model=1 CVRwatts=0.8 CVRvars=3 Class=1 conn=wye
New Load.Carga_IDSeta_2960 phases=3 bus1=X_2960.1.2.3.0 kv=0.38 kW=0.677943998338366 pf=0.93 status=variable model=1 CVRwatts=0.8 CVRvars=3 Class=1 conn=wye
New Load.Carga_IDSeta_646 phases=3 bus1=X_646.1.2.3.0 kv=0.38 kW=0.35268762919336966 pf=0.93 status=variable model=1 CVRwatts=0.8 CVRvars=3 Class=1 conn=wye
! New Load.Carga_IDSeta_2952 phases=3 bus1=X_2952.1.2.3.0 kv=0.38 kW=0.0 pf=0.93 status=variable model=1 CVRwatts=0.8 CVRvars=3 Class=1 conn=wye
New Load.Carga_IDSeta_2959 phases=3 bus1=X_2959.1.2.3.0 kv=0.38 kW=10.20181623703784 pf=0.93 status=variable model=1 CVRwatts=0.8 CVRvars=3 Class=1 conn=wye
New Load.Carga_IDSeta_2956 phases=3 bus1=X_2956.1.2.3.0 kv=0.38 kW=1.1286004134187828 pf=0.93 status=variable model=1 CVRwatts=0.8 CVRvars=3 Class=1 conn=wye
New Load.Carga_IDSeta_2088 phases=3 bus1=X_2088.1.2.3.0 kv=0.38 kW=8.504884967591604 pf=0.877 status=variable model=1 CVRwatts=0.8 CVRvars=3 Class=1 conn=wye
New Load.Carga_IDSeta_560 phases=3 bus1=X_560.1.2.3.0 kv=0.38 kW=28.22495532933022 pf=0.877 status=variable model=1 CVRwatts=0.8 CVRvars=3 Class=1 conn=wye
New Load.Carga_IDSeta_1638 phases=3 bus1=X_1638.1.2.3.0 kv=0.38 kW=5.874166168586245 pf=0.877 status=variable model=1 CVRwatts=0.8 CVRvars=3 Class=1 conn=wye
New Load.Carga_IDSeta_2396 phases=3 bus1=X_2396.1.2.3.0 kv=0.38 kW=0.8179421091691824 pf=0.877 status=variable model=1 CVRwatts=0.8 CVRvars=3 Class=1 conn=wye
New Load.Carga_IDSeta_1951 phases=3 bus1=X_1951.1.2.3.0 kv=0.38 kW=0.9298417286068302 pf=0.877 status=variable model=1 CVRwatts=0.8 CVRvars=3 Class=1 conn=wye
New Load.Carga_IDSeta_570 phases=3 bus1=X_570.1.2.3.0 kv=0.38 kW=16.484445544964444 pf=0.877 status=variable model=1 CVRwatts=0.8 CVRvars=3 Class=1 conn=wye
New Load.Carga_IDSeta_2940 phases=3 bus1=X_2940.1.2.3.0 kv=0.38 kW=53.13531678737357 pf=0.889 status=variable model=1 CVRwatts=0.8 CVRvars=3 Class=1 conn=wye
New Load.Carga_IDSeta_1594 phases=3 bus1=X_1594.1.2.3.0 kv=0.38 kW=79.66162487591096 pf=0.889 status=variable model=1 CVRwatts=0.8 CVRvars=3 Class=1 conn=wye
New Load.Carga_IDSeta_1595 phases=3 bus1=X_1595.1.2.3.0 kv=0.38 kW=102.05059680027736 pf=0.889 status=variable model=1 CVRwatts=0.8 CVRvars=3 Class=1 conn=wye
New Load.Carga_IDSeta_2937 phases=3 bus1=X_2937.1.2.3.0 kv=0.38 kW=111.6569490038629 pf=0.877 status=variable model=1 CVRwatts=0.8 CVRvars=3 Class=1 conn=wye
New Load.Carga_IDSeta_2947 phases=3 bus1=X_2947.1.2.3.0 kv=0.38 kW=6.236173356867755 pf=0.877 status=variable model=1 CVRwatts=0.8 CVRvars=3 Class=1 conn=wye
New Load.Carga_IDSeta_593 phases=3 bus1=X_593.1.2.3.0 kv=0.38 kW=8.570548732027524 pf=0.877 status=variable model=1 CVRwatts=0.8 CVRvars=3 Class=1 conn=wye
New Load.Carga_IDSeta_2948 phases=3 bus1=X_2948.1.2.3.0 kv=0.38 kW=4.640715177851678 pf=0.877 status=variable model=1 CVRwatts=0.8 CVRvars=3 Class=1 conn=wye
New Load.Carga_IDSeta_594 phases=3 bus1=X_594.1.2.3.0 kv=0.38 kW=9.51011155271715 pf=0.877 status=variable model=1 CVRwatts=0.8 CVRvars=3 Class=1 conn=wye
New Load.Carga_IDSeta_859 phases=3 bus1=X_859.1.2.3.0 kv=0.38 kW=4.829084533394375 pf=0.877 status=variable model=1 CVRwatts=0.8 CVRvars=3 Class=1 conn=wye
New Load.Carga_IDSeta_2074 phases=3 bus1=X_2074.1.2.3.0 kv=0.38 kW=0.6837596340175188 pf=0.877 status=variable model=1 CVRwatts=0.8 CVRvars=3 Class=1 conn=wye
New Load.Carga_IDSeta_596 phases=3 bus1=X_596.1.2.3.0 kv=0.38 kW=0.7479959253135279 pf=0.877 status=variable model=1 CVRwatts=0.8 CVRvars=3 Class=1 conn=wye
New Load.Carga_IDSeta_1874 phases=3 bus1=X_1874.1.2.3.0 kv=0.38 kW=23.109905101817414 pf=0.877 status=variable model=1 CVRwatts=0.8 CVRvars=3 Class=1 conn=wye
New Load.Carga_IDSeta_956 phases=3 bus1=X_956.1.2.3.0 kv=0.38 kW=6.061002220211981 pf=0.93 status=variable model=1 CVRwatts=0.8 CVRvars=3 Class=1 conn=wye
New Load.Carga_IDSeta_2258 phases=3 bus1=X_2258.1.2.3.0 kv=0.38 kW=6.733819042903636 pf=0.877 status=variable model=1 CVRwatts=0.8 CVRvars=3 Class=1 conn=wye
New Load.Carga_IDSeta_2286 phases=3 bus1=X_2286.1.2.3.0 kv=0.38 kW=18.066100058717577 pf=0.877 status=variable model=1 CVRwatts=0.8 CVRvars=3 Class=1 conn=wye
New Load.Carga_IDSeta_582 phases=3 bus1=X_582.1.2.3.0 kv=0.38 kW=4.332380979630835 pf=0.877 status=variable model=1 CVRwatts=0.8 CVRvars=3 Class=1 conn=wye
New Load.Carga_IDSeta_2962 phases=3 bus1=X_2962.1.2.3.0 kv=0.38 kW=0.45718766747288664 pf=0.93 status=variable model=1 CVRwatts=0.8 CVRvars=3 Class=1 conn=wye
New Load.Carga_IDSeta_957 phases=3 bus1=X_957.1.2.3.0 kv=0.38 kW=9.26262214300068 pf=0.93 status=variable model=1 CVRwatts=0.8 CVRvars=3 Class=1 conn=wye
New Load.Carga_IDSeta_958 phases=3 bus1=X_958.1.2.3.0 kv=0.38 kW=7.089334846901568 pf=0.93 status=variable model=1 CVRwatts=0.8 CVRvars=3 Class=1 conn=wye
New Load.Carga_IDSeta_2949 phases=3 bus1=X_2949.1.2.3.0 kv=0.38 kW=0.10188753732252899 pf=0.93 status=variable model=1 CVRwatts=0.8 CVRvars=3 Class=1 conn=wye
New Load.Carga_IDSeta_2966 phases=3 bus1=X_2966.1.2.3.0 kv=0.38 kW=0.14891255454831162 pf=0.93 status=variable model=1 CVRwatts=0.8 CVRvars=3 Class=1 conn=wye
New Load.Carga_IDSeta_2968 phases=3 bus1=X_2968.1.2.3.0 kv=0.38 kW=5.455542060925245 pf=0.93 status=variable model=1 CVRwatts=0.8 CVRvars=3 Class=1 conn=wye
New Load.Carga_IDSeta_520 phases=3 bus1=X_520.1.2.3.0 kv=0.38 kW=36.02709357212185 pf=0.93 status=variable model=1 CVRwatts=0.8 CVRvars=3 Class=1 conn=wye
New Load.Carga_IDSeta_644 phases=3 bus1=X_644.1.2.3.0 kv=0.38 kW=2.487100911052503 pf=0.93 status=variable model=1 CVRwatts=0.8 CVRvars=3 Class=1 conn=wye
New Load.Carga_IDSeta_1046 phases=3 bus1=X_1046.1.2.3.0 kv=0.38 kW=3.343898654436448 pf=0.877 status=variable model=1 CVRwatts=0.8 CVRvars=3 Class=1 conn=wye
New Load.Carga_IDSeta_2992 phases=3 bus1=X_2992.1.2.3.0 kv=0.38 kW=15.033033680496818 pf=0.877 status=variable model=1 CVRwatts=0.8 CVRvars=3 Class=1 conn=wye
New Load.Carga_IDSeta_524 phases=3 bus1=X_524.1.2.3.0 kv=0.38 kW=10.295178955474173 pf=0.877 status=variable model=1 CVRwatts=0.8 CVRvars=3 Class=1 conn=wye
New Load.Carga_IDSeta_1106 phases=3 bus1=X_1106.1.2.3.0 kv=0.38 kW=11.969747695904134 pf=0.877 status=variable model=1 CVRwatts=0.8 CVRvars=3 Class=1 conn=wye
New Load.Carga_IDSeta_2950 phases=3 bus1=X_2950.1.2.3.0 kv=0.38 kW=6.309331355288211 pf=0.877 status=variable model=1 CVRwatts=0.8 CVRvars=3 Class=1 conn=wye
! New Load.Carga_IDSeta_1213 phases=3 bus1=X_1213.1.2.3.0 kv=0.38 kW=0.0 pf=0.877 status=variable model=1 CVRwatts=0.8 CVRvars=3 Class=1 conn=wye
New Load.Carga_IDSeta_2643 phases=3 bus1=X_2643.1.2.3.0 kv=0.38 kW=18.65533242141017 pf=0.877 status=variable model=1 CVRwatts=0.8 CVRvars=3 Class=1 conn=wye
New Load.Carga_IDSeta_2967 phases=3 bus1=X_2967.1.2.3.0 kv=0.38 kW=2.3439108957343757 pf=0.877 status=variable model=1 CVRwatts=0.8 CVRvars=3 Class=1 conn=wye
New Load.Carga_IDSeta_2973 phases=3 bus1=X_2973.1.2.3.0 kv=0.38 kW=8.931699436425085 pf=0.877 status=variable model=1 CVRwatts=0.8 CVRvars=3 Class=1 conn=wye
New Load.Carga_IDSeta_2963 phases=3 bus1=X_2963.1.2.3.0 kv=0.38 kW=0.39840639594065824 pf=0.93 status=variable model=1 CVRwatts=0.8 CVRvars=3 Class=1 conn=wye
New Load.Carga_IDSeta_2989 phases=3 bus1=X_2989.1.2.3.0 kv=0.38 kW=2.5119196701438877 pf=0.93 status=variable model=1 CVRwatts=0.8 CVRvars=3 Class=1 conn=wye
New Load.Carga_IDSeta_968 phases=3 bus1=X_968.1.2.3.0 kv=0.38 kW=35.18516288871334 pf=0.93 status=variable model=1 CVRwatts=0.8 CVRvars=3 Class=1 conn=wye
New Load.Carga_IDSeta_1002 phases=3 bus1=X_1002.1.2.3.0 kv=0.38 kW=24.611064405210943 pf=0.877 status=variable model=1 CVRwatts=0.8 CVRvars=3 Class=1 conn=wye
New Load.Carga_IDSeta_2957 phases=3 bus1=X_2957.1.2.3.0 kv=0.38 kW=0.920720175242797 pf=0.877 status=variable model=1 CVRwatts=0.8 CVRvars=3 Class=1 conn=wye
New Load.Carga_IDSeta_2988 phases=3 bus1=X_2988.1.2.3.0 kv=0.38 kW=0.3411660804388038 pf=0.877 status=variable model=1 CVRwatts=0.8 CVRvars=3 Class=1 conn=wye
New Load.Carga_IDSeta_833 phases=3 bus1=X_833.1.2.3.0 kv=0.38 kW=11.816137311318277 pf=0.877 status=variable model=1 CVRwatts=0.8 CVRvars=3 Class=1 conn=wye
New Load.Carga_IDSeta_523 phases=3 bus1=X_523.1.2.3.0 kv=0.38 kW=6.255187299091372 pf=0.877 status=variable model=1 CVRwatts=0.8 CVRvars=3 Class=1 conn=wye
New Load.Carga_IDSeta_1356 phases=3 bus1=X_1356.1.2.3.0 kv=0.38 kW=1.3924630100745632 pf=0.93 status=variable model=1 CVRwatts=0.8 CVRvars=3 Class=1 conn=wye
New Load.Carga_IDSeta_1382 phases=3 bus1=X_1382.1.2.3.0 kv=0.38 kW=1.334987989020829 pf=0.93 status=variable model=1 CVRwatts=0.8 CVRvars=3 Class=1 conn=wye
New Load.Carga_IDSeta_635 phases=3 bus1=X_635.1.2.3.0 kv=0.38 kW=0.26551000402350416 pf=0.877 status=variable model=1 CVRwatts=0.8 CVRvars=3 Class=1 conn=wye
New Load.Carga_IDSeta_1355 phases=3 bus1=X_1355.1.2.3.0 kv=0.38 kW=42.63434026973119 pf=0.877 status=variable model=1 CVRwatts=0.8 CVRvars=3 Class=1 conn=wye
New Load.Carga_IDSeta_1243 phases=3 bus1=X_1243.1.2.3.0 kv=0.38 kW=2.0784008917108716 pf=0.877 status=variable model=1 CVRwatts=0.8 CVRvars=3 Class=1 conn=wye
New Load.Carga_IDSeta_1543 phases=3 bus1=X_1543.1.2.3.0 kv=0.38 kW=27.0535137717934 pf=0.877 status=variable model=1 CVRwatts=0.8 CVRvars=3 Class=1 conn=wye
New Load.Carga_IDSeta_2 phases=3 bus1=X_2.1.2.3.0 kv=0.38 kW=4.405982863960133 pf=0.93 status=variable model=1 CVRwatts=0.8 CVRvars=3 Class=1 conn=wye
New Load.Carga_IDSeta_2978 phases=3 bus1=X_2978.1.2.3.0 kv=0.38 kW=1.8601006813754015 pf=0.93 status=variable model=1 CVRwatts=0.8 CVRvars=3 Class=1 conn=wye
New Load.Carga_IDSeta_2724 phases=3 bus1=X_2724.1.2.3.0 kv=0.38 kW=0.4480439141234288 pf=0.93 status=variable model=1 CVRwatts=0.8 CVRvars=3 Class=1 conn=wye
New Load.Carga_IDSeta_2683 phases=3 bus1=X_2683.1.2.3.0 kv=0.38 kW=48.46128562684916 pf=0.877 status=variable model=1 CVRwatts=0.8 CVRvars=3 Class=1 conn=wye
New Load.Carga_IDSeta_1352 phases=3 bus1=X_1352.1.2.3.0 kv=0.38 kW=99.2684520623658 pf=0.877 status=variable model=1 CVRwatts=0.8 CVRvars=3 Class=1 conn=wye
New Load.Carga_IDSeta_1374 phases=3 bus1=X_1374.1.2.3.0 kv=0.38 kW=9.868121816206907 pf=0.877 status=variable model=1 CVRwatts=0.8 CVRvars=3 Class=1 conn=wye
New Load.Carga_IDSeta_2977 phases=3 bus1=X_2977.1.2.3.0 kv=0.38 kW=4.650707489831058 pf=0.877 status=variable model=1 CVRwatts=0.8 CVRvars=3 Class=1 conn=wye
New Load.Carga_IDSeta_2660 phases=3 bus1=X_2660.1.2.3.0 kv=0.38 kW=0.39826500603525633 pf=0.877 status=variable model=1 CVRwatts=0.8 CVRvars=3 Class=1 conn=wye
New Load.Carga_IDSeta_2975 phases=3 bus1=X_2975.1.2.3.0 kv=0.38 kW=55.733518988664564 pf=0.877 status=variable model=1 CVRwatts=0.8 CVRvars=3 Class=1 conn=wye
New Load.Carga_IDSeta_1353 phases=3 bus1=X_1353.1.2.3.0 kv=0.38 kW=15.896626380680361 pf=0.877 status=variable model=1 CVRwatts=0.8 CVRvars=3 Class=1 conn=wye
New Load.Carga_IDSeta_1318 phases=3 bus1=X_1318.1.2.3.0 kv=0.38 kW=0.23410559494545533 pf=0.877 status=variable model=1 CVRwatts=0.8 CVRvars=3 Class=1 conn=wye
New Load.Carga_IDSeta_540 phases=3 bus1=X_540.1.2.3.0 kv=0.38 kW=2.430247447107716 pf=0.889 status=variable model=1 CVRwatts=0.8 CVRvars=3 Class=1 conn=wye
New Load.Carga_IDSeta_541 phases=3 bus1=X_541.1.2.3.0 kv=0.38 kW=3.9964586672130715 pf=0.889 status=variable model=1 CVRwatts=0.8 CVRvars=3 Class=1 conn=wye
New Load.Carga_IDSeta_2395 phases=3 bus1=X_2395.1.2.3.0 kv=0.38 kW=2.208300947442801 pf=0.877 status=variable model=1 CVRwatts=0.8 CVRvars=3 Class=1 conn=wye
New Load.Carga_IDSeta_2228 phases=3 bus1=X_2228.1.2.3.0 kv=0.38 kW=0.42966941511330525 pf=0.877 status=variable model=1 CVRwatts=0.8 CVRvars=3 Class=1 conn=wye
New Load.Carga_IDSeta_651 phases=3 bus1=X_651.1.2.3.0 kv=0.38 kW=1.50027427004679 pf=0.877 status=variable model=1 CVRwatts=0.8 CVRvars=3 Class=1 conn=wye
New Load.Carga_IDSeta_31 phases=3 bus1=X_31.1.2.3.0 kv=0.38 kW=0.6113463870299716 pf=0.889 status=variable model=1 CVRwatts=0.8 CVRvars=3 Class=1 conn=wye
New Load.Carga_IDSeta_27 phases=3 bus1=X_27.1.2.3.0 kv=0.38 kW=4.130605531567077 pf=0.889 status=variable model=1 CVRwatts=0.8 CVRvars=3 Class=1 conn=wye
New Load.Carga_IDSeta_805 phases=3 bus1=X_805.1.2.3.0 kv=0.38 kW=3.595804839436598 pf=0.877 status=variable model=1 CVRwatts=0.8 CVRvars=3 Class=1 conn=wye
New Load.Carga_IDSeta_3020 phases=3 bus1=X_3020.1.2.3.0 kv=0.38 kW=36.43379664243561 pf=0.877 status=variable model=1 CVRwatts=0.8 CVRvars=3 Class=1 conn=wye
New Load.Carga_IDSeta_2543 phases=3 bus1=X_2543.1.2.3.0 kv=0.38 kW=1.2576038362618667 pf=0.877 status=variable model=1 CVRwatts=0.8 CVRvars=3 Class=1 conn=wye
New Load.Carga_IDSeta_1105 phases=3 bus1=X_1105.1.2.3.0 kv=0.38 kW=0.6552101712192927 pf=0.877 status=variable model=1 CVRwatts=0.8 CVRvars=3 Class=1 conn=wye
New Load.Carga_IDSeta_656 phases=3 bus1=X_656.1.2.3.0 kv=0.38 kW=10.945864036839946 pf=0.877 status=variable model=1 CVRwatts=0.8 CVRvars=3 Class=1 conn=wye
New Load.Carga_IDSeta_204 phases=3 bus1=X_204.1.2.3.0 kv=0.38 kW=4.89337792361598 pf=0.877 status=variable model=1 CVRwatts=0.8 CVRvars=3 Class=1 conn=wye
New Load.Carga_IDSeta_3001 phases=3 bus1=X_3001.1.2.3.0 kv=0.38 kW=23.720321165906288 pf=0.877 status=variable model=1 CVRwatts=0.8 CVRvars=3 Class=1 conn=wye
New Load.Carga_IDSeta_3014 phases=3 bus1=X_3014.1.2.3.0 kv=0.38 kW=3.5341643516875503 pf=0.889 status=variable model=1 CVRwatts=0.8 CVRvars=3 Class=1 conn=wye
New Load.Carga_IDSeta_2898 phases=3 bus1=X_2898.1.2.3.0 kv=0.38 kW=11.644412292586948 pf=0.877 status=variable model=1 CVRwatts=0.8 CVRvars=3 Class=1 conn=wye
New Load.Carga_IDSeta_2944 phases=3 bus1=X_2944.1.2.3.0 kv=0.38 kW=0.8430757794470466 pf=0.889 status=variable model=1 CVRwatts=0.8 CVRvars=3 Class=1 conn=wye
New Load.Carga_IDSeta_2377 phases=3 bus1=X_2377.1.2.3.0 kv=0.38 kW=6.011364702029212 pf=0.93 status=variable model=1 CVRwatts=0.8 CVRvars=3 Class=1 conn=wye
New Load.Carga_IDSeta_2583 phases=3 bus1=X_2583.1.2.3.0 kv=0.38 kW=0.475475174171802 pf=0.93 status=variable model=1 CVRwatts=0.8 CVRvars=3 Class=1 conn=wye
New Load.Carga_IDSeta_2549 phases=3 bus1=X_2549.1.2.3.0 kv=0.38 kW=0.13323754880638408 pf=0.93 status=variable model=1 CVRwatts=0.8 CVRvars=3 Class=1 conn=wye
New Load.Carga_IDSeta_3010 phases=3 bus1=X_3010.1.2.3.0 kv=0.38 kW=2.5171446720578645 pf=0.93 status=variable model=1 CVRwatts=0.8 CVRvars=3 Class=1 conn=wye
New Load.Carga_IDSeta_1228 phases=3 bus1=X_1228.1.2.3.0 kv=0.38 kW=0.4101626502471039 pf=0.93 status=variable model=1 CVRwatts=0.8 CVRvars=3 Class=1 conn=wye
New Load.Carga_IDSeta_104 phases=3 bus1=X_104.1.2.3.0 kv=0.38 kW=40.61393987733426 pf=0.93 status=variable model=1 CVRwatts=0.8 CVRvars=3 Class=1 conn=wye
New Load.Carga_IDSeta_11 phases=3 bus1=X_11.1.2.3.0 kv=0.38 kW=4.182614032137665 pf=0.93 status=variable model=1 CVRwatts=0.8 CVRvars=3 Class=1 conn=wye
New Load.Carga_IDSeta_42 phases=3 bus1=X_42.1.2.3.0 kv=0.38 kW=1.63375044000581 pf=0.889 status=variable model=1 CVRwatts=0.8 CVRvars=3 Class=1 conn=wye
New Load.Carga_IDSeta_2997 phases=3 bus1=X_2997.1.2.3.0 kv=0.38 kW=2.5159174541435156 pf=0.889 status=variable model=1 CVRwatts=0.8 CVRvars=3 Class=1 conn=wye
New Load.Carga_IDSeta_2930 phases=3 bus1=X_2930.1.2.3.0 kv=0.38 kW=35.73640059063781 pf=0.93 status=variable model=1 CVRwatts=0.8 CVRvars=3 Class=1 conn=wye
New Load.Carga_IDSeta_1759 phases=3 bus1=X_1759.1.2.3.0 kv=0.38 kW=6.725217526021376 pf=0.93 status=variable model=1 CVRwatts=0.8 CVRvars=3 Class=1 conn=wye
New Load.Carga_IDSeta_5006 phases=3 bus1=X_5006.1.2.3.0 kv=0.38 kW=11.709229289219872 pf=0.93 status=variable model=1 CVRwatts=0.8 CVRvars=3 Class=1 conn=wye
New Load.Carga_IDSeta_5000 phases=3 bus1=X_5000.1.2.3.0 kv=0.38 kW=0.067925024881686 pf=0.93 status=variable model=1 CVRwatts=0.8 CVRvars=3 Class=1 conn=wye
New Load.Carga_IDSeta_5026 phases=3 bus1=X_5026.1.2.3.0 kv=0.38 kW=0.17242506316120293 pf=0.93 status=variable model=1 CVRwatts=0.8 CVRvars=3 Class=1 conn=wye
New Load.Carga_IDSeta_5007 phases=3 bus1=X_5007.1.2.3.0 kv=0.38 kW=0.17373131363969688 pf=0.93 status=variable model=1 CVRwatts=0.8 CVRvars=3 Class=1 conn=wye
New Load.Carga_IDSeta_5008 phases=3 bus1=X_5008.1.2.3.0 kv=0.38 kW=0.37750638828475486 pf=0.93 status=variable model=1 CVRwatts=0.8 CVRvars=3 Class=1 conn=wye
New Load.Carga_IDSeta_5011 phases=3 bus1=X_5011.1.2.3.0 kv=0.38 kW=0.6674939945104145 pf=0.93 status=variable model=1 CVRwatts=0.8 CVRvars=3 Class=1 conn=wye
New Load.Carga_IDSeta_5009 phases=3 bus1=X_5009.1.2.3.0 kv=0.38 kW=10.304317712085263 pf=0.93 status=variable model=1 CVRwatts=0.8 CVRvars=3 Class=1 conn=wye
New Load.Carga_IDSeta_2644 phases=3 bus1=X_2644.1.2.3.0 kv=0.38 kW=0.8098752966662562 pf=0.93 status=variable model=1 CVRwatts=0.8 CVRvars=3 Class=1 conn=wye
New Load.Carga_IDSeta_2922 phases=3 bus1=X_2922.1.2.3.0 kv=0.38 kW=0.36836263493529714 pf=0.93 status=variable model=1 CVRwatts=0.8 CVRvars=3 Class=1 conn=wye
New Load.Carga_IDSeta_1973 phases=3 bus1=X_1973.1.2.3.0 kv=0.38 kW=16.134805910357414 pf=0.93 status=variable model=1 CVRwatts=0.8 CVRvars=3 Class=1 conn=wye
New Load.Carga_IDSeta_2951 phases=3 bus1=X_2951.1.2.3.0 kv=0.38 kW=5.513591832189518 pf=0.93 status=variable model=1 CVRwatts=0.8 CVRvars=3 Class=1 conn=wye
New Load.Carga_IDSeta_2993 phases=3 bus1=X_2993.1.2.3.0 kv=0.38 kW=1.5348443122304047 pf=0.93 status=variable model=1 CVRwatts=0.8 CVRvars=3 Class=1 conn=wye
New Load.Carga_IDSeta_1357 phases=3 bus1=X_1357.1.2.3.0 kv=0.38 kW=0.8542878129350508 pf=0.93 status=variable model=1 CVRwatts=0.8 CVRvars=3 Class=1 conn=wye
New Load.Carga_IDSeta_2548 phases=3 bus1=X_2548.1.2.3.0 kv=0.38 kW=1.5857880808916696 pf=0.93 status=variable model=1 CVRwatts=0.8 CVRvars=3 Class=1 conn=wye
New Load.Carga_IDSeta_1326 phases=3 bus1=X_1326.1.2.3.0 kv=0.38 kW=0.5499314514459578 pf=0.93 status=variable model=1 CVRwatts=0.8 CVRvars=3 Class=1 conn=wye
New Load.Carga_IDSeta_1488 phases=3 bus1=X_1488.1.2.3.0 kv=0.38 kW=20.185919706825093 pf=0.93 status=variable model=1 CVRwatts=0.8 CVRvars=3 Class=1 conn=wye
New Load.Carga_IDSeta_1231 phases=3 bus1=X_1231.1.2.3.0 kv=0.38 kW=4.077434276842674 pf=0.877 status=variable model=1 CVRwatts=0.8 CVRvars=3 Class=1 conn=wye
New Load.Carga_IDSeta_401 phases=3 bus1=X_401.1.2.3.0 kv=0.38 kW=1.3302764938147518 pf=0.877 status=variable model=1 CVRwatts=0.8 CVRvars=3 Class=1 conn=wye
New Load.Carga_IDSeta_1236 phases=3 bus1=X_1236.1.2.3.0 kv=0.38 kW=10.444820964731077 pf=0.877 status=variable model=1 CVRwatts=0.8 CVRvars=3 Class=1 conn=wye
New Load.Carga_IDSeta_967 phases=3 bus1=X_967.1.2.3.0 kv=0.38 kW=48.72885119219414 pf=0.877 status=variable model=1 CVRwatts=0.8 CVRvars=3 Class=1 conn=wye
New Load.Carga_IDSeta_2998 phases=3 bus1=X_2998.1.2.3.0 kv=0.38 kW=3.3023877355278266 pf=0.877 status=variable model=1 CVRwatts=0.8 CVRvars=3 Class=1 conn=wye
New Load.Carga_IDSeta_1000 phases=3 bus1=X_1000.1.2.3.0 kv=0.38 kW=1.1705279747272765 pf=0.877 status=variable model=1 CVRwatts=0.8 CVRvars=3 Class=1 conn=wye
New Load.Carga_IDSeta_2748 phases=3 bus1=X_2748.1.2.3.0 kv=0.38 kW=15.931593688456367 pf=0.889 status=variable model=1 CVRwatts=0.8 CVRvars=3 Class=1 conn=wye
New Load.Carga_IDSeta_604 phases=3 bus1=X_604.1.2.3.0 kv=0.38 kW=30.768318398860952 pf=0.889 status=variable model=1 CVRwatts=0.8 CVRvars=3 Class=1 conn=wye
New Load.Carga_IDSeta_835 phases=3 bus1=X_835.1.2.3.0 kv=0.38 kW=34.620103399170006 pf=0.889 status=variable model=1 CVRwatts=0.8 CVRvars=3 Class=1 conn=wye
New Load.Carga_IDSeta_659 phases=3 bus1=X_659.1.2.3.0 kv=0.38 kW=4.534443487799447 pf=0.889 status=variable model=1 CVRwatts=0.8 CVRvars=3 Class=1 conn=wye
New Load.Carga_IDSeta_47 phases=3 bus1=X_47.1.2.3.0 kv=0.38 kW=28.23126296185122 pf=0.871 status=variable model=1 CVRwatts=0.8 CVRvars=3 Class=1 conn=wye
New Load.Carga_IDSeta_39 phases=3 bus1=X_39.1.2.3.0 kv=0.38 kW=6.8331059030321395 pf=0.889 status=variable model=1 CVRwatts=0.8 CVRvars=3 Class=1 conn=wye
New Load.Carga_IDSeta_2955 phases=3 bus1=X_2955.1.2.3.0 kv=0.38 kW=52.022731556500524 pf=0.93 status=variable model=1 CVRwatts=0.8 CVRvars=3 Class=1 conn=wye
New Load.Carga_IDSeta_609 phases=3 bus1=X_609.1.2.3.0 kv=0.38 kW=8.426099336573149 pf=0.93 status=variable model=1 CVRwatts=0.8 CVRvars=3 Class=1 conn=wye
New Load.Carga_IDSeta_2928 phases=3 bus1=X_2928.1.2.3.0 kv=0.38 kW=42.020771642672244 pf=0.93 status=variable model=1 CVRwatts=0.8 CVRvars=3 Class=1 conn=wye
New Load.Carga_IDSeta_2298 phases=3 bus1=X_2298.1.2.3.0 kv=0.38 kW=0.44412516268794694 pf=0.93 status=variable model=1 CVRwatts=0.8 CVRvars=3 Class=1 conn=wye
New Load.Carga_IDSeta_1289 phases=3 bus1=X_1289.1.2.3.0 kv=0.38 kW=33.324134769498215 pf=0.93 status=variable model=1 CVRwatts=0.8 CVRvars=3 Class=1 conn=wye
New Load.Carga_IDSeta_2923 phases=3 bus1=X_2923.1.2.3.0 kv=0.38 kW=12.588885620877871 pf=0.877 status=variable model=1 CVRwatts=0.8 CVRvars=3 Class=1 conn=wye
New Load.Carga_IDSeta_2958 phases=3 bus1=X_2958.1.2.3.0 kv=0.38 kW=6.560666551032394 pf=0.877 status=variable model=1 CVRwatts=0.8 CVRvars=3 Class=1 conn=wye
New Load.Carga_IDSeta_2981 phases=3 bus1=X_2981.1.2.3.0 kv=0.38 kW=0.49898768278469324 pf=0.93 status=variable model=1 CVRwatts=0.8 CVRvars=3 Class=1 conn=wye
New Load.Carga_IDSeta_67 phases=3 bus1=X_67.1.2.3.0 kv=0.38 kW=5.413546108041666 pf=0.93 status=variable model=1 CVRwatts=0.8 CVRvars=3 Class=1 conn=wye
New Load.Carga_IDSeta_5 phases=3 bus1=X_5.1.2.3.0 kv=0.38 kW=13.931997353444334 pf=0.93 status=variable model=1 CVRwatts=0.8 CVRvars=3 Class=1 conn=wye
New Load.Carga_IDSeta_2991 phases=3 bus1=X_2991.1.2.3.0 kv=0.38 kW=0.7902815394888466 pf=0.93 status=variable model=1 CVRwatts=0.8 CVRvars=3 Class=1 conn=wye
New Load.Carga_IDSeta_2933 phases=3 bus1=X_2933.1.2.3.0 kv=0.38 kW=88.09326766705597 pf=0.889 status=variable model=1 CVRwatts=0.8 CVRvars=3 Class=1 conn=wye
New Load.Carga_IDSeta_66 phases=3 bus1=X_66.1.2.3.0 kv=0.38 kW=84.78268142262509 pf=0.889 status=variable model=1 CVRwatts=0.8 CVRvars=3 Class=1 conn=wye
New Load.Carga_IDSeta_45 phases=3 bus1=X_45.1.2.3.0 kv=0.38 kW=7.94750303138963 pf=0.889 status=variable model=1 CVRwatts=0.8 CVRvars=3 Class=1 conn=wye
New Load.Carga_IDSeta_43 phases=3 bus1=X_43.1.2.3.0 kv=0.38 kW=8.117515550449394 pf=0.889 status=variable model=1 CVRwatts=0.8 CVRvars=3 Class=1 conn=wye
New Load.Carga_IDSeta_3005 phases=3 bus1=X_3005.1.2.3.0 kv=0.38 kW=0.29263199368181914 pf=0.877 status=variable model=1 CVRwatts=0.8 CVRvars=3 Class=1 conn=wye
New Load.Carga_IDSeta_278 phases=3 bus1=X_278.1.2.3.0 kv=0.38 kW=13.68961015906348 pf=0.877 status=variable model=1 CVRwatts=0.8 CVRvars=3 Class=1 conn=wye
New Load.Carga_IDSeta_3003 phases=3 bus1=X_3003.1.2.3.0 kv=0.38 kW=3.9124072725162646 pf=0.889 status=variable model=1 CVRwatts=0.8 CVRvars=3 Class=1 conn=wye
New Load.Carga_IDSeta_20 phases=3 bus1=X_20.1.2.3.0 kv=0.38 kW=28.541724989139276 pf=0.889 status=variable model=1 CVRwatts=0.8 CVRvars=3 Class=1 conn=wye
New Load.Carga_IDSeta_2953 phases=3 bus1=X_2953.1.2.3.0 kv=0.38 kW=0.37728805599563964 pf=0.889 status=variable model=1 CVRwatts=0.8 CVRvars=3 Class=1 conn=wye
New Load.Carga_IDSeta_25 phases=3 bus1=X_25.1.2.3.0 kv=0.38 kW=3.4398423376886402 pf=0.889 status=variable model=1 CVRwatts=0.8 CVRvars=3 Class=1 conn=wye
New Load.Carga_IDSeta_72 phases=3 bus1=X_72.1.2.3.0 kv=0.38 kW=52.15502281477202 pf=0.871 status=variable model=1 CVRwatts=0.8 CVRvars=3 Class=1 conn=wye
New Load.Carga_IDSeta_71 phases=3 bus1=X_71.1.2.3.0 kv=0.38 kW=82.5732505816318 pf=0.871 status=variable model=1 CVRwatts=0.8 CVRvars=3 Class=1 conn=wye
New Load.Carga_IDSeta_2897 phases=3 bus1=X_2897.1.2.3.0 kv=0.38 kW=0.32786887010198434 pf=0.93 status=variable model=1 CVRwatts=0.8 CVRvars=3 Class=1 conn=wye
New Load.Carga_IDSeta_3004 phases=3 bus1=X_3004.1.2.3.0 kv=0.38 kW=11.909085612429447 pf=0.93 status=variable model=1 CVRwatts=0.8 CVRvars=3 Class=1 conn=wye
New Load.Carga_IDSeta_645 phases=3 bus1=X_645.1.2.3.0 kv=0.38 kW=53.21716699403539 pf=0.93 status=variable model=1 CVRwatts=0.8 CVRvars=3 Class=1 conn=wye
New Load.Carga_IDSeta_3021 phases=3 bus1=X_3021.1.2.3.0 kv=0.38 kW=35.6805040856864 pf=0.889 status=variable model=1 CVRwatts=0.8 CVRvars=3 Class=1 conn=wye
New Load.Carga_IDSeta_207 phases=3 bus1=X_207.1.2.3.0 kv=0.38 kW=74.97668537466434 pf=0.889 status=variable model=1 CVRwatts=0.8 CVRvars=3 Class=1 conn=wye
New Load.Carga_IDSeta_209 phases=3 bus1=X_209.1.2.3.0 kv=0.38 kW=83.13961522815025 pf=0.889 status=variable model=1 CVRwatts=0.8 CVRvars=3 Class=1 conn=wye
New Load.Carga_IDSeta_236 phases=3 bus1=X_236.1.2.3.0 kv=0.38 kW=63.44331569205694 pf=0.877 status=variable model=1 CVRwatts=0.8 CVRvars=3 Class=1 conn=wye
New Load.Carga_IDSeta_2666 phases=3 bus1=X_2666.1.2.3.0 kv=0.38 kW=66.66442310699821 pf=0.877 status=variable model=1 CVRwatts=0.8 CVRvars=3 Class=1 conn=wye
New Load.Carga_IDSeta_439 phases=3 bus1=X_439.1.2.3.0 kv=0.38 kW=7.003183224404901 pf=0.877 status=variable model=1 CVRwatts=0.8 CVRvars=3 Class=1 conn=wye
New Load.Carga_IDSeta_2931 phases=3 bus1=X_2931.1.2.3.0 kv=0.38 kW=15.081253723163021 pf=0.877 status=variable model=1 CVRwatts=0.8 CVRvars=3 Class=1 conn=wye
New Load.Carga_IDSeta_1592 phases=3 bus1=X_1592.1.2.3.0 kv=0.38 kW=0.7772190347039071 pf=0.93 status=variable model=1 CVRwatts=0.8 CVRvars=3 Class=1 conn=wye
New Load.Carga_IDSeta_2478 phases=3 bus1=X_2478.1.2.3.0 kv=0.38 kW=33.301549698725054 pf=0.93 status=variable model=1 CVRwatts=0.8 CVRvars=3 Class=1 conn=wye
New Load.Carga_IDSeta_37 phases=3 bus1=X_37.1.2.3.0 kv=0.38 kW=2.921071260694636 pf=0.889 status=variable model=1 CVRwatts=0.8 CVRvars=3 Class=1 conn=wye
New Load.Carga_IDSeta_36 phases=3 bus1=X_36.1.2.3.0 kv=0.38 kW=9.811585500642162 pf=0.889 status=variable model=1 CVRwatts=0.8 CVRvars=3 Class=1 conn=wye
New Load.Carga_IDSeta_2941 phases=3 bus1=X_2941.1.2.3.0 kv=0.38 kW=2.345241187577834 pf=0.889 status=variable model=1 CVRwatts=0.8 CVRvars=3 Class=1 conn=wye
New Load.Carga_IDSeta_35 phases=3 bus1=X_35.1.2.3.0 kv=0.38 kW=8.366758561268243 pf=0.889 status=variable model=1 CVRwatts=0.8 CVRvars=3 Class=1 conn=wye
New Load.Carga_IDSeta_34 phases=3 bus1=X_34.1.2.3.0 kv=0.38 kW=33.81943759194322 pf=0.889 status=variable model=1 CVRwatts=0.8 CVRvars=3 Class=1 conn=wye
New Load.Carga_IDSeta_3035 phases=3 bus1=X_3035.1.2.3.0 kv=0.38 kW=12.75710342306773 pf=0.93 status=variable model=1 CVRwatts=0.8 CVRvars=3 Class=1 conn=wye
New Load.Carga_IDSeta_33 phases=3 bus1=X_33.1.2.3.0 kv=0.38 kW=9.32274128487991 pf=0.889 status=variable model=1 CVRwatts=0.8 CVRvars=3 Class=1 conn=wye
New Load.Carga_IDSeta_2935 phases=3 bus1=X_2935.1.2.3.0 kv=0.38 kW=0.3842748718474107 pf=0.889 status=variable model=1 CVRwatts=0.8 CVRvars=3 Class=1 conn=wye
New Load.Carga_IDSeta_49 phases=3 bus1=X_49.1.2.3.0 kv=0.38 kW=83.10999370644375 pf=0.871 status=variable model=1 CVRwatts=0.8 CVRvars=3 Class=1 conn=wye
New Load.Carga_IDSeta_48 phases=3 bus1=X_48.1.2.3.0 kv=0.38 kW=67.66847599371177 pf=0.889 status=variable model=1 CVRwatts=0.8 CVRvars=3 Class=1 conn=wye
New Load.Carga_IDSeta_98 phases=3 bus1=X_98.1.2.3.0 kv=0.38 kW=32.00685960021133 pf=0.889 status=variable model=1 CVRwatts=0.8 CVRvars=3 Class=1 conn=wye
New Load.Carga_IDSeta_38 phases=3 bus1=X_38.1.2.3.0 kv=0.38 kW=10.702637415604702 pf=0.889 status=variable model=1 CVRwatts=0.8 CVRvars=3 Class=1 conn=wye
New Load.Carga_IDSeta_24 phases=3 bus1=X_24.1.2.3.0 kv=0.38 kW=46.72367890590642 pf=0.889 status=variable model=1 CVRwatts=0.8 CVRvars=3 Class=1 conn=wye
New Load.Carga_IDSeta_3000 phases=3 bus1=X_3000.1.2.3.0 kv=0.38 kW=7.354788153297715 pf=0.889 status=variable model=1 CVRwatts=0.8 CVRvars=3 Class=1 conn=wye
New Load.Carga_IDSeta_23 phases=3 bus1=X_23.1.2.3.0 kv=0.38 kW=45.04307022092141 pf=0.889 status=variable model=1 CVRwatts=0.8 CVRvars=3 Class=1 conn=wye
New Load.Carga_IDSeta_3018 phases=3 bus1=X_3018.1.2.3.0 kv=0.38 kW=2.2381100111840104 pf=0.889 status=variable model=1 CVRwatts=0.8 CVRvars=3 Class=1 conn=wye
New Load.Carga_IDSeta_22 phases=3 bus1=X_22.1.2.3.0 kv=0.38 kW=9.743114705294804 pf=0.889 status=variable model=1 CVRwatts=0.8 CVRvars=3 Class=1 conn=wye
New Load.Carga_IDSeta_3015 phases=3 bus1=X_3015.1.2.3.0 kv=0.38 kW=4.227023590321518 pf=0.889 status=variable model=1 CVRwatts=0.8 CVRvars=3 Class=1 conn=wye
New Load.Carga_IDSeta_237 phases=3 bus1=X_237.1.2.3.0 kv=0.38 kW=28.587721526830105 pf=0.889 status=variable model=1 CVRwatts=0.8 CVRvars=3 Class=1 conn=wye
New Load.Carga_IDSeta_3024 phases=3 bus1=X_3024.1.2.3.0 kv=0.38 kW=5.7119338462353255 pf=0.877 status=variable model=1 CVRwatts=0.8 CVRvars=3 Class=1 conn=wye
New Load.Carga_IDSeta_637 phases=3 bus1=X_637.1.2.3.0 kv=0.38 kW=6.684856714204678 pf=0.877 status=variable model=1 CVRwatts=0.8 CVRvars=3 Class=1 conn=wye
New Load.Carga_IDSeta_781 phases=3 bus1=X_781.1.2.3.0 kv=0.38 kW=8.627647657623974 pf=0.877 status=variable model=1 CVRwatts=0.8 CVRvars=3 Class=1 conn=wye
New Load.Carga_IDSeta_3023 phases=3 bus1=X_3023.1.2.3.0 kv=0.38 kW=0.15131215283059915 pf=0.877 status=variable model=1 CVRwatts=0.8 CVRvars=3 Class=1 conn=wye
New Load.Carga_IDSeta_2939 phases=3 bus1=X_2939.1.2.3.0 kv=0.38 kW=0.45108151221197496 pf=0.877 status=variable model=1 CVRwatts=0.8 CVRvars=3 Class=1 conn=wye
New Load.Carga_IDSeta_19 phases=3 bus1=X_19.1.2.3.0 kv=0.38 kW=1.0921324751765138 pf=0.889 status=variable model=1 CVRwatts=0.8 CVRvars=3 Class=1 conn=wye
New Load.Carga_IDSeta_2428 phases=3 bus1=X_2428.1.2.3.0 kv=0.38 kW=1.6372438479316955 pf=0.889 status=variable model=1 CVRwatts=0.8 CVRvars=3 Class=1 conn=wye
New Load.Carga_IDSeta_238 phases=3 bus1=X_238.1.2.3.0 kv=0.38 kW=5.732717340457451 pf=0.889 status=variable model=1 CVRwatts=0.8 CVRvars=3 Class=1 conn=wye
New Load.Carga_IDSeta_202 phases=3 bus1=X_202.1.2.3.0 kv=0.38 kW=226.214698665272 pf=0.889 status=variable model=1 CVRwatts=0.8 CVRvars=3 Class=1 conn=wye
New Load.Carga_IDSeta_239 phases=3 bus1=X_239.1.2.3.0 kv=0.38 kW=0.8931479597180728 pf=0.889 status=variable model=1 CVRwatts=0.8 CVRvars=3 Class=1 conn=wye
New Load.Carga_IDSeta_3019 phases=3 bus1=X_3019.1.2.3.0 kv=0.38 kW=9.904975939194166 pf=0.889 status=variable model=1 CVRwatts=0.8 CVRvars=3 Class=1 conn=wye
New Load.Carga_IDSeta_3011 phases=3 bus1=X_3011.1.2.3.0 kv=0.38 kW=2.486658209725507 pf=0.877 status=variable model=1 CVRwatts=0.8 CVRvars=3 Class=1 conn=wye
New Load.Carga_IDSeta_1569 phases=3 bus1=X_1569.1.2.3.0 kv=0.38 kW=7.294387744946809 pf=0.877 status=variable model=1 CVRwatts=0.8 CVRvars=3 Class=1 conn=wye
New Load.Carga_IDSeta_551 phases=3 bus1=X_551.1.2.3.0 kv=0.38 kW=4.366640334988706 pf=0.877 status=variable model=1 CVRwatts=0.8 CVRvars=3 Class=1 conn=wye
New Load.Carga_IDSeta_2985 phases=3 bus1=X_2985.1.2.3.0 kv=0.38 kW=2.3567581539935776 pf=0.877 status=variable model=1 CVRwatts=0.8 CVRvars=3 Class=1 conn=wye
New Load.Carga_IDSeta_433 phases=3 bus1=X_433.1.2.3.0 kv=0.38 kW=6.160974071857227 pf=0.877 status=variable model=1 CVRwatts=0.8 CVRvars=3 Class=1 conn=wye
New Load.Carga_IDSeta_2299 phases=3 bus1=X_2299.1.2.3.0 kv=0.38 kW=21.38367610845406 pf=0.877 status=variable model=1 CVRwatts=0.8 CVRvars=3 Class=1 conn=wye
New Load.Carga_IDSeta_2109 phases=3 bus1=X_2109.1.2.3.0 kv=0.38 kW=5.491489169238821 pf=0.877 status=variable model=1 CVRwatts=0.8 CVRvars=3 Class=1 conn=wye
New Load.Carga_IDSeta_1032 phases=3 bus1=X_1032.1.2.3.0 kv=0.38 kW=98.2366459273751 pf=0.877 status=variable model=1 CVRwatts=0.8 CVRvars=3 Class=1 conn=wye
New Load.Carga_IDSeta_2171 phases=3 bus1=X_2171.1.2.3.0 kv=0.38 kW=13.157019930562573 pf=0.877 status=variable model=1 CVRwatts=0.8 CVRvars=3 Class=1 conn=wye
New Load.Carga_IDSeta_2995 phases=3 bus1=X_2995.1.2.3.0 kv=0.38 kW=2.927747409958103 pf=0.877 status=variable model=1 CVRwatts=0.8 CVRvars=3 Class=1 conn=wye
New Load.Carga_IDSeta_2974 phases=3 bus1=X_2974.1.2.3.0 kv=0.38 kW=1.391156759596069 pf=0.93 status=variable model=1 CVRwatts=0.8 CVRvars=3 Class=1 conn=wye
New Load.Carga_IDSeta_2064 phases=3 bus1=X_2064.1.2.3.0 kv=0.38 kW=10.289766081754836 pf=0.93 status=variable model=1 CVRwatts=0.8 CVRvars=3 Class=1 conn=wye
New Load.Carga_IDSeta_1984 phases=3 bus1=X_1984.1.2.3.0 kv=0.38 kW=2.1174320256387116 pf=0.93 status=variable model=1 CVRwatts=0.8 CVRvars=3 Class=1 conn=wye
New Load.Carga_IDSeta_1649 phases=3 bus1=X_1649.1.2.3.0 kv=0.38 kW=0.5708314591018612 pf=0.93 status=variable model=1 CVRwatts=0.8 CVRvars=3 Class=1 conn=wye
New Load.Carga_IDSeta_1678 phases=3 bus1=X_1678.1.2.3.0 kv=0.38 kW=0.3095813634030689 pf=0.93 status=variable model=1 CVRwatts=0.8 CVRvars=3 Class=1 conn=wye
New Load.Carga_IDSeta_531 phases=3 bus1=X_531.1.2.3.0 kv=0.38 kW=1.1024754038489035 pf=0.93 status=variable model=1 CVRwatts=0.8 CVRvars=3 Class=1 conn=wye
New Load.Carga_IDSeta_3006 phases=3 bus1=X_3006.1.2.3.0 kv=0.38 kW=48.521107151933066 pf=0.889 status=variable model=1 CVRwatts=0.8 CVRvars=3 Class=1 conn=wye
New Load.Carga_IDSeta_3026 phases=3 bus1=X_3026.1.2.3.0 kv=0.38 kW=10.235324237358993 pf=0.889 status=variable model=1 CVRwatts=0.8 CVRvars=3 Class=1 conn=wye
New Load.Carga_IDSeta_6005 phases=3 bus1=X_6005.1.2.3.0 kv=0.38 kW=46.2559230793334 pf=0.871 status=variable model=1 CVRwatts=0.8 CVRvars=3 Class=1 conn=wye
New Load.Carga_IDSeta_2996 phases=3 bus1=X_2996.1.2.3.0 kv=0.38 kW=40.68447740317292 pf=0.93 status=variable model=1 CVRwatts=0.8 CVRvars=3 Class=1 conn=wye
New Load.Carga_IDSeta_7 phases=3 bus1=X_7.1.2.3.0 kv=0.38 kW=99.59172016004658 pf=0.871 status=variable model=1 CVRwatts=0.8 CVRvars=3 Class=1 conn=wye
New Load.Carga_IDSeta_6 phases=3 bus1=X_6.1.2.3.0 kv=0.38 kW=92.63533257701233 pf=0.871 status=variable model=1 CVRwatts=0.8 CVRvars=3 Class=1 conn=wye
New Load.Carga_IDSeta_94 phases=3 bus1=X_94.1.2.3.0 kv=0.38 kW=41.98419662927442 pf=0.93 status=variable model=1 CVRwatts=0.8 CVRvars=3 Class=1 conn=wye
New Load.Carga_IDSeta_2954 phases=3 bus1=X_2954.1.2.3.0 kv=0.38 kW=73.84887080165612 pf=0.93 status=variable model=1 CVRwatts=0.8 CVRvars=3 Class=1 conn=wye
New Load.Carga_IDSeta_2798 phases=3 bus1=X_2798.1.2.3.0 kv=0.38 kW=78.91059140582021 pf=0.93 status=variable model=1 CVRwatts=0.8 CVRvars=3 Class=1 conn=wye
New Load.Carga_IDSeta_15 phases=3 bus1=X_15.1.2.3.0 kv=0.38 kW=73.29193546056274 pf=0.871 status=variable model=1 CVRwatts=0.8 CVRvars=3 Class=1 conn=wye
New Load.Carga_IDSeta_76 phases=3 bus1=X_76.1.2.3.0 kv=0.38 kW=79.87020296048804 pf=0.871 status=variable model=1 CVRwatts=0.8 CVRvars=3 Class=1 conn=wye
New Load.Carga_IDSeta_8 phases=3 bus1=X_8.1.2.3.0 kv=0.38 kW=43.20175241445424 pf=0.871 status=variable model=1 CVRwatts=0.8 CVRvars=3 Class=1 conn=wye
New Load.Carga_IDSeta_14 phases=3 bus1=X_14.1.2.3.0 kv=0.38 kW=164.4127438127981 pf=0.871 status=variable model=1 CVRwatts=0.8 CVRvars=3 Class=1 conn=wye
New Load.Carga_IDSeta_2932 phases=3 bus1=X_2932.1.2.3.0 kv=0.38 kW=29.063989474059166 pf=0.889 status=variable model=1 CVRwatts=0.8 CVRvars=3 Class=1 conn=wye
New Load.Carga_IDSeta_505 phases=3 bus1=X_505.1.2.3.0 kv=0.38 kW=29.877953520790495 pf=0.889 status=variable model=1 CVRwatts=0.8 CVRvars=3 Class=1 conn=wye
New Load.Carga_IDSeta_5020 phases=3 bus1=X_5020.1.2.3.0 kv=0.38 kW=0.7288877669996306 pf=0.93 status=variable model=1 CVRwatts=0.8 CVRvars=3 Class=1 conn=wye
New Load.Carga_IDSeta_5021 phases=3 bus1=X_5021.1.2.3.0 kv=0.38 kW=0.3997126464191522 pf=0.93 status=variable model=1 CVRwatts=0.8 CVRvars=3 Class=1 conn=wye
New Load.Carga_IDSeta_5022 phases=3 bus1=X_5022.1.2.3.0 kv=0.38 kW=0.6126314744136679 pf=0.93 status=variable model=1 CVRwatts=0.8 CVRvars=3 Class=1 conn=wye
New Load.Carga_IDSeta_5010 phases=3 bus1=X_5010.1.2.3.0 kv=0.38 kW=1.8561819299399196 pf=0.93 status=variable model=1 CVRwatts=0.8 CVRvars=3 Class=1 conn=wye
New Load.Carga_IDSeta_5014 phases=3 bus1=X_5014.1.2.3.0 kv=0.38 kW=5.547645782163855 pf=0.93 status=variable model=1 CVRwatts=0.8 CVRvars=3 Class=1 conn=wye
New Load.Carga_IDSeta_5012 phases=3 bus1=X_5012.1.2.3.0 kv=0.38 kW=0.2926001071826474 pf=0.93 status=variable model=1 CVRwatts=0.8 CVRvars=3 Class=1 conn=wye
New Load.Carga_IDSeta_5028 phases=3 bus1=X_5028.1.2.3.0 kv=0.38 kW=0.21553132895150365 pf=0.93 status=variable model=1 CVRwatts=0.8 CVRvars=3 Class=1 conn=wye
New Load.Carga_IDSeta_5025 phases=3 bus1=X_5025.1.2.3.0 kv=0.38 kW=1.636731849552934 pf=0.93 status=variable model=1 CVRwatts=0.8 CVRvars=3 Class=1 conn=wye
! New Load.Carga_IDSeta_5018 phases=3 bus1=X_5018.1.2.3.0 kv=0.38 kW=0.0 pf=0.93 status=variable model=1 CVRwatts=0.8 CVRvars=3 Class=1 conn=wye
New Load.Carga_IDSeta_5016 phases=3 bus1=X_5016.1.2.3.0 kv=0.38 kW=0.4153876521610798 pf=0.93 status=variable model=1 CVRwatts=0.8 CVRvars=3 Class=1 conn=wye
New Load.Carga_IDSeta_5027 phases=3 bus1=X_5027.1.2.3.0 kv=0.38 kW=2.652994721821236 pf=0.93 status=variable model=1 CVRwatts=0.8 CVRvars=3 Class=1 conn=wye
New Load.Carga_IDSeta_5013 phases=3 bus1=X_5013.1.2.3.0 kv=0.38 kW=1.5309255607949228 pf=0.93 status=variable model=1 CVRwatts=0.8 CVRvars=3 Class=1 conn=wye
New Load.Carga_IDSeta_5015 phases=3 bus1=X_5015.1.2.3.0 kv=0.38 kW=3.3910262421703243 pf=0.93 status=variable model=1 CVRwatts=0.8 CVRvars=3 Class=1 conn=wye
New Load.Carga_IDSeta_5017 phases=3 bus1=X_5017.1.2.3.0 kv=0.38 kW=0.8582065643705328 pf=0.93 status=variable model=1 CVRwatts=0.8 CVRvars=3 Class=1 conn=wye
New Load.Carga_IDSeta_5019 phases=3 bus1=X_5019.1.2.3.0 kv=0.38 kW=1.702044373477632 pf=0.93 status=variable model=1 CVRwatts=0.8 CVRvars=3 Class=1 conn=wye
New Load.Carga_IDSeta_5001 phases=3 bus1=X_5001.1.2.3.0 kv=0.38 kW=0.4336751588599953 pf=0.93 status=variable model=1 CVRwatts=0.8 CVRvars=3 Class=1 conn=wye
New Load.Carga_IDSeta_5002 phases=3 bus1=X_5002.1.2.3.0 kv=0.38 kW=2.1879695514773854 pf=0.93 status=variable model=1 CVRwatts=0.8 CVRvars=3 Class=1 conn=wye
New Load.Carga_IDSeta_5005 phases=3 bus1=X_5005.1.2.3.0 kv=0.38 kW=22.761414587757283 pf=0.93 status=variable model=1 CVRwatts=0.8 CVRvars=3 Class=1 conn=wye
New Load.Carga_IDSeta_5004 phases=3 bus1=X_5004.1.2.3.0 kv=0.38 kW=21.546601642757896 pf=0.93 status=variable model=1 CVRwatts=0.8 CVRvars=3 Class=1 conn=wye
New Load.Carga_IDSeta_5003 phases=3 bus1=X_5003.1.2.3.0 kv=0.38 kW=10.682555600637972 pf=0.93 status=variable model=1 CVRwatts=0.8 CVRvars=3 Class=1 conn=wye
New Load.Carga_IDSeta_111 phases=3 bus1=X_111.1.2.3.0 kv=0.38 kW=1.4421005282573338 pf=0.93 status=variable model=1 CVRwatts=0.8 CVRvars=3 Class=1 conn=wye
New Load.Carga_IDSeta_2797 phases=3 bus1=X_2797.1.2.3.0 kv=0.38 kW=49.21781990403042 pf=0.93 status=variable model=1 CVRwatts=0.8 CVRvars=3 Class=1 conn=wye
New Load.Carga_IDSeta_2976 phases=3 bus1=X_2976.1.2.3.0 kv=0.38 kW=2.3238196012407575 pf=0.93 status=variable model=1 CVRwatts=0.8 CVRvars=3 Class=1 conn=wye
New Load.Carga_IDSeta_2796 phases=3 bus1=X_2796.1.2.3.0 kv=0.38 kW=0.47025017225782617 pf=0.93 status=variable model=1 CVRwatts=0.8 CVRvars=3 Class=1 conn=wye
New Load.Carga_IDSeta_1962 phases=3 bus1=X_1962.1.2.3.0 kv=0.38 kW=31.01691761183912 pf=0.93 status=variable model=1 CVRwatts=0.8 CVRvars=3 Class=1 conn=wye
New Load.Carga_IDSeta_2929 phases=3 bus1=X_2929.1.2.3.0 kv=0.38 kW=41.31278388332853 pf=0.93 status=variable model=1 CVRwatts=0.8 CVRvars=3 Class=1 conn=wye
New Load.Carga_IDSeta_2979 phases=3 bus1=X_2979.1.2.3.0 kv=0.38 kW=47.67027883714908 pf=0.93 status=variable model=1 CVRwatts=0.8 CVRvars=3 Class=1 conn=wye
New Load.Carga_IDSeta_3 phases=3 bus1=X_3.1.2.3.0 kv=0.38 kW=121.07405061148819 pf=0.871 status=variable model=1 CVRwatts=0.8 CVRvars=3 Class=1 conn=wye
New Load.Carga_IDSeta_2999 phases=3 bus1=X_2999.1.2.3.0 kv=0.38 kW=2.481875909138527 pf=0.93 status=variable model=1 CVRwatts=0.8 CVRvars=3 Class=1 conn=wye
New Load.Carga_IDSeta_53 phases=3 bus1=X_53.1.2.3.0 kv=0.38 kW=63.757497319004834 pf=0.871 status=variable model=1 CVRwatts=0.8 CVRvars=3 Class=1 conn=wye
New Load.Carga_IDSeta_378 phases=3 bus1=X_378.1.2.3.0 kv=0.38 kW=57.96367865240344 pf=0.871 status=variable model=1 CVRwatts=0.8 CVRvars=3 Class=1 conn=wye
New Load.Carga_IDSeta_78 phases=3 bus1=X_78.1.2.3.0 kv=0.38 kW=98.16205317074443 pf=0.871 status=variable model=1 CVRwatts=0.8 CVRvars=3 Class=1 conn=wye
New Load.Carga_IDSeta_54 phases=3 bus1=X_54.1.2.3.0 kv=0.38 kW=91.37551537336928 pf=0.871 status=variable model=1 CVRwatts=0.8 CVRvars=3 Class=1 conn=wye
New Load.Carga_IDSeta_85 phases=3 bus1=X_85.1.2.3.0 kv=0.38 kW=84.42402487556751 pf=0.889 status=variable model=1 CVRwatts=0.8 CVRvars=3 Class=1 conn=wye
New Load.Carga_IDSeta_46 phases=3 bus1=X_46.1.2.3.0 kv=0.38 kW=25.626476074987785 pf=0.889 status=variable model=1 CVRwatts=0.8 CVRvars=3 Class=1 conn=wye
New Load.Carga_IDSeta_13 phases=3 bus1=X_13.1.2.3.0 kv=0.38 kW=61.67411415134637 pf=0.871 status=variable model=1 CVRwatts=0.8 CVRvars=3 Class=1 conn=wye
New Load.Carga_IDSeta_12 phases=3 bus1=X_12.1.2.3.0 kv=0.38 kW=108.8566841423866 pf=0.871 status=variable model=1 CVRwatts=0.8 CVRvars=3 Class=1 conn=wye
New Load.Carga_IDSeta_74 phases=3 bus1=X_74.1.2.3.0 kv=0.38 kW=45.22520583217244 pf=0.871 status=variable model=1 CVRwatts=0.8 CVRvars=3 Class=1 conn=wye
New Load.Carga_IDSeta_69 phases=3 bus1=X_69.1.2.3.0 kv=0.38 kW=95.88818723791992 pf=0.871 status=variable model=1 CVRwatts=0.8 CVRvars=3 Class=1 conn=wye
New Load.Carga_IDSeta_79 phases=3 bus1=X_79.1.2.3.0 kv=0.38 kW=47.032006661730925 pf=0.871 status=variable model=1 CVRwatts=0.8 CVRvars=3 Class=1 conn=wye
New Load.Carga_IDSeta_75 phases=3 bus1=X_75.1.2.3.0 kv=0.38 kW=37.09051431447703 pf=0.871 status=variable model=1 CVRwatts=0.8 CVRvars=3 Class=1 conn=wye
New Load.Carga_IDSeta_9 phases=3 bus1=X_9.1.2.3.0 kv=0.38 kW=84.37187584182576 pf=0.871 status=variable model=1 CVRwatts=0.8 CVRvars=3 Class=1 conn=wye
New Load.Carga_IDSeta_57 phases=3 bus1=X_57.1.2.3.0 kv=0.38 kW=122.13243938249529 pf=0.871 status=variable model=1 CVRwatts=0.8 CVRvars=3 Class=1 conn=wye
New Load.Carga_IDSeta_17 phases=3 bus1=X_17.1.2.3.0 kv=0.38 kW=111.89656441690202 pf=0.871 status=variable model=1 CVRwatts=0.8 CVRvars=3 Class=1 conn=wye
New Load.Carga_IDSeta_840 phases=3 bus1=X_840.1.2.3.0 kv=0.38 kW=22.89824709022078 pf=0.871 status=variable model=1 CVRwatts=0.8 CVRvars=3 Class=1 conn=wye
New Load.Carga_IDSeta_41 phases=3 bus1=X_41.1.2.3.0 kv=0.38 kW=43.431887196116826 pf=0.889 status=variable model=1 CVRwatts=0.8 CVRvars=3 Class=1 conn=wye
New Load.Carga_IDSeta_40 phases=3 bus1=X_40.1.2.3.0 kv=0.38 kW=56.85835806092065 pf=0.889 status=variable model=1 CVRwatts=0.8 CVRvars=3 Class=1 conn=wye
New Load.Carga_IDSeta_18 phases=3 bus1=X_18.1.2.3.0 kv=0.38 kW=61.02169733968566 pf=0.871 status=variable model=1 CVRwatts=0.8 CVRvars=3 Class=1 conn=wye
New Load.Carga_IDSeta_80 phases=3 bus1=X_80.1.2.3.0 kv=0.38 kW=65.05300543346974 pf=0.871 status=variable model=1 CVRwatts=0.8 CVRvars=3 Class=1 conn=wye
New Load.Carga_IDSeta_51 phases=3 bus1=X_51.1.2.3.0 kv=0.38 kW=95.42099164543447 pf=0.871 status=variable model=1 CVRwatts=0.8 CVRvars=3 Class=1 conn=wye
New Load.Carga_IDSeta_50 phases=3 bus1=X_50.1.2.3.0 kv=0.38 kW=83.08042300223194 pf=0.871 status=variable model=1 CVRwatts=0.8 CVRvars=3 Class=1 conn=wye
New Load.Carga_IDSeta_52 phases=3 bus1=X_52.1.2.3.0 kv=0.38 kW=61.15323598945539 pf=0.871 status=variable model=1 CVRwatts=0.8 CVRvars=3 Class=1 conn=wye
New Load.Carga_IDSeta_200 phases=3 bus1=X_200.1.2.3.0 kv=0.38 kW=24.188836045251374 pf=0.871 status=variable model=1 CVRwatts=0.8 CVRvars=3 Class=1 conn=wye
New Load.Carga_IDSeta_63 phases=3 bus1=X_63.1.2.3.0 kv=0.38 kW=42.917288605875775 pf=0.871 status=variable model=1 CVRwatts=0.8 CVRvars=3 Class=1 conn=wye
New Load.Carga_IDSeta_55 phases=3 bus1=X_55.1.2.3.0 kv=0.38 kW=23.372072801332383 pf=0.871 status=variable model=1 CVRwatts=0.8 CVRvars=3 Class=1 conn=wye
New Load.Carga_IDSeta_58 phases=3 bus1=X_58.1.2.3.0 kv=0.38 kW=76.53713993577978 pf=0.871 status=variable model=1 CVRwatts=0.8 CVRvars=3 Class=1 conn=wye
New Load.Carga_IDSeta_68 phases=3 bus1=X_68.1.2.3.0 kv=0.38 kW=36.94706539345916 pf=0.871 status=variable model=1 CVRwatts=0.8 CVRvars=3 Class=1 conn=wye
New Load.Carga_IDSeta_61 phases=3 bus1=X_61.1.2.3.0 kv=0.38 kW=103.69834159404475 pf=0.871 status=variable model=1 CVRwatts=0.8 CVRvars=3 Class=1 conn=wye
New Load.Carga_IDSeta_73 phases=3 bus1=X_73.1.2.3.0 kv=0.38 kW=61.53663546475318 pf=0.871 status=variable model=1 CVRwatts=0.8 CVRvars=3 Class=1 conn=wye
New Load.Carga_IDSeta_83 phases=3 bus1=X_83.1.2.3.0 kv=0.38 kW=73.12835151577829 pf=0.871 status=variable model=1 CVRwatts=0.8 CVRvars=3 Class=1 conn=wye
New Load.Carga_IDSeta_60 phases=3 bus1=X_60.1.2.3.0 kv=0.38 kW=81.23552304436255 pf=0.871 status=variable model=1 CVRwatts=0.8 CVRvars=3 Class=1 conn=wye
New Load.Carga_IDSeta_62 phases=3 bus1=X_62.1.2.3.0 kv=0.38 kW=60.06607414750588 pf=0.871 status=variable model=1 CVRwatts=0.8 CVRvars=3 Class=1 conn=wye
New Load.Carga_IDSeta_77 phases=3 bus1=X_77.1.2.3.0 kv=0.38 kW=61.33024214614939 pf=0.871 status=variable model=1 CVRwatts=0.8 CVRvars=3 Class=1 conn=wye
New Load.Carga_IDSeta_82 phases=3 bus1=X_82.1.2.3.0 kv=0.38 kW=17.37512879194188 pf=0.871 status=variable model=1 CVRwatts=0.8 CVRvars=3 Class=1 conn=wye
New Load.Carga_IDSeta_56 phases=3 bus1=X_56.1.2.3.0 kv=0.38 kW=101.78607553022958 pf=0.871 status=variable model=1 CVRwatts=0.8 CVRvars=3 Class=1 conn=wye
New Load.Carga_IDSeta_65 phases=3 bus1=X_65.1.2.3.0 kv=0.38 kW=46.91749111011324 pf=0.871 status=variable model=1 CVRwatts=0.8 CVRvars=3 Class=1 conn=wye
New Load.Carga_IDSeta_241 phases=3 bus1=X_241.1.2.3.0 kv=0.38 kW=1.2599557919360558 pf=0.889 status=variable model=1 CVRwatts=0.8 CVRvars=3 Class=1 conn=wye
New Load.Carga_IDSeta_70 phases=3 bus1=X_70.1.2.3.0 kv=0.38 kW=54.556626973984294 pf=0.871 status=variable model=1 CVRwatts=0.8 CVRvars=3 Class=1 conn=wye
New Load.Carga_IDSeta_59 phases=3 bus1=X_59.1.2.3.0 kv=0.38 kW=106.28028631016093 pf=0.871 status=variable model=1 CVRwatts=0.8 CVRvars=3 Class=1 conn=wye
New Load.Carga_IDSeta_3009 phases=3 bus1=X_3009.1.2.3.0 kv=0.38 kW=35.29240002736836 pf=0.871 status=variable model=1 CVRwatts=0.8 CVRvars=3 Class=1 conn=wye
New Load.Carga_IDSeta_81 phases=3 bus1=X_81.1.2.3.0 kv=0.38 kW=81.37949482087171 pf=0.871 status=variable model=1 CVRwatts=0.8 CVRvars=3 Class=1 conn=wye
New Load.Carga_IDSeta_3028 phases=3 bus1=X_3028.1.2.3.0 kv=0.38 kW=57.584171780988804 pf=0.889 status=variable model=1 CVRwatts=0.8 CVRvars=3 Class=1 conn=wye
New Load.Carga_IDSeta_2645 phases=3 bus1=X_2645.1.2.3.0 kv=0.38 kW=2.6399322170362964 pf=0.93 status=variable model=1 CVRwatts=0.8 CVRvars=3 Class=1 conn=wye
New Load.Carga_IDSeta_2646 phases=3 bus1=X_2646.1.2.3.0 kv=0.38 kW=0.7576252775264977 pf=0.93 status=variable model=1 CVRwatts=0.8 CVRvars=3 Class=1 conn=wye
New Load.Carga_IDSeta_2794 phases=3 bus1=X_2794.1.2.3.0 kv=0.38 kW=25.841696903598677 pf=0.93 status=variable model=1 CVRwatts=0.8 CVRvars=3 Class=1 conn=wye
New Load.Carga_IDSeta_2795 phases=3 bus1=X_2795.1.2.3.0 kv=0.38 kW=2.688263484740573 pf=0.93 status=variable model=1 CVRwatts=0.8 CVRvars=3 Class=1 conn=wye
New Load.Carga_IDSeta_2924 phases=3 bus1=X_2924.1.2.3.0 kv=0.38 kW=0.6165502258491499 pf=0.93 status=variable model=1 CVRwatts=0.8 CVRvars=3 Class=1 conn=wye
New Load.Carga_IDSeta_2479 phases=3 bus1=X_2479.1.2.3.0 kv=0.38 kW=3.887009359978505 pf=0.877 status=variable model=1 CVRwatts=0.8 CVRvars=3 Class=1 conn=wye
New Load.Carga_IDSeta_2300 phases=3 bus1=X_2300.1.2.3.0 kv=0.38 kW=0.7437135058937941 pf=0.877 status=variable model=1 CVRwatts=0.8 CVRvars=3 Class=1 conn=wye
New Load.Carga_IDSeta_2972 phases=3 bus1=X_2972.1.2.3.0 kv=0.38 kW=3.725426364664779 pf=0.93 status=variable model=1 CVRwatts=0.8 CVRvars=3 Class=1 conn=wye
New Load.Carga_IDSeta_5029 phases=3 bus1=X_5029.1.2.3.0 kv=0.38 kW=5.376526969481146 pf=0.93 status=variable model=1 CVRwatts=0.8 CVRvars=3 Class=1 conn=wye
New Load.Carga_IDSeta_87 phases=3 bus1=X_87.1.2.3.0 kv=0.38 kW=38.26958964734548 pf=0.871 status=variable model=1 CVRwatts=0.8 CVRvars=3 Class=1 conn=wye
New Load.Carga_IDSeta_86 phases=3 bus1=X_86.1.2.3.0 kv=0.38 kW=62.90810433250731 pf=0.871 status=variable model=1 CVRwatts=0.8 CVRvars=3 Class=1 conn=wye
New Load.Carga_IDSeta_3017 phases=3 bus1=X_3017.1.2.3.0 kv=0.38 kW=5.282032783938955 pf=0.889 status=variable model=1 CVRwatts=0.8 CVRvars=3 Class=1 conn=wye
New Load.Carga_IDSeta_3027 phases=3 bus1=X_3027.1.2.3.0 kv=0.38 kW=69.41844703582913 pf=0.877 status=variable model=1 CVRwatts=0.8 CVRvars=3 Class=1 conn=wye
New Load.Carga_IDSeta_84 phases=3 bus1=X_84.1.2.3.0 kv=0.38 kW=28.31915033251979 pf=0.871 status=variable model=1 CVRwatts=0.8 CVRvars=3 Class=1 conn=wye
New Load.Carga_IDSeta_88 phases=3 bus1=X_88.1.2.3.0 kv=0.38 kW=11.33985522549703 pf=0.871 status=variable model=1 CVRwatts=0.8 CVRvars=3 Class=1 conn=wye
New Load.Carga_IDSeta_3029 phases=3 bus1=X_3029.1.2.3.0 kv=0.38 kW=10.600222632978499 pf=0.93 status=variable model=1 CVRwatts=0.8 CVRvars=3 Class=1 conn=wye
New Load.Carga_IDSeta_10 phases=3 bus1=X_10.1.2.3.0 kv=0.38 kW=80.17269902697521 pf=0.871 status=variable model=1 CVRwatts=0.8 CVRvars=3 Class=1 conn=wye
! New Load.Carga_IDSeta_2302 phases=3 bus1=X_2302.1.2.3.0 kv=0.38 kW=0.0 pf=0.93 status=variable model=1 CVRwatts=0.8 CVRvars=3 Class=1 conn=wye
New Load.Carga_IDSeta_137 phases=3 bus1=X_137.1.2.3.0 kv=0.38 kW=12.176388707637694 pf=0.877 status=variable model=1 CVRwatts=0.8 CVRvars=3 Class=1 conn=wye
New Load.Carga_IDSeta_95 phases=3 bus1=X_95.1.2.3.0 kv=0.38 kW=59.4879530410935 pf=0.93 status=variable model=1 CVRwatts=0.8 CVRvars=3 Class=1 conn=wye
New Load.Carga_IDSeta_91 phases=3 bus1=X_91.1.2.3.0 kv=0.38 kW=31.063075800486143 pf=0.871 status=variable model=1 CVRwatts=0.8 CVRvars=3 Class=1 conn=wye
New Load.Carga_IDSeta_3031 phases=3 bus1=X_3031.1.2.3.0 kv=0.38 kW=1.628746852638808 pf=0.877 status=variable model=1 CVRwatts=0.8 CVRvars=3 Class=1 conn=wye
New Load.Carga_IDSeta_2969 phases=3 bus1=X_2969.1.2.3.0 kv=0.38 kW=8.649990668587012 pf=0.93 status=variable model=1 CVRwatts=0.8 CVRvars=3 Class=1 conn=wye
New Load.Carga_IDSeta_2987 phases=3 bus1=X_2987.1.2.3.0 kv=0.38 kW=1.4120567672519726 pf=0.93 status=variable model=1 CVRwatts=0.8 CVRvars=3 Class=1 conn=wye
New Load.Carga_IDSeta_1 phases=3 bus1=X_1.1.2.3.0 kv=0.38 kW=13.632029993562984 pf=0.93 status=variable model=1 CVRwatts=0.8 CVRvars=3 Class=1 conn=wye
New Load.Carga_IDSeta_2965 phases=3 bus1=X_2965.1.2.3.0 kv=0.38 kW=2.3081445954988298 pf=0.93 status=variable model=1 CVRwatts=0.8 CVRvars=3 Class=1 conn=wye
New Load.Carga_IDSeta_89 phases=3 bus1=X_89.1.2.3.0 kv=0.38 kW=59.56719838987815 pf=0.871 status=variable model=1 CVRwatts=0.8 CVRvars=3 Class=1 conn=wye
New Load.Carga_IDSeta_105 phases=3 bus1=X_105.1.2.3.0 kv=0.38 kW=16.312619690932706 pf=0.889 status=variable model=1 CVRwatts=0.8 CVRvars=3 Class=1 conn=wye
New Load.Carga_IDSeta_102 phases=3 bus1=X_102.1.2.3.0 kv=0.38 kW=43.7848836204997 pf=0.877 status=variable model=1 CVRwatts=0.8 CVRvars=3 Class=1 conn=wye
New Load.Carga_IDSeta_90 phases=3 bus1=X_90.1.2.3.0 kv=0.38 kW=43.79217357876279 pf=0.871 status=variable model=1 CVRwatts=0.8 CVRvars=3 Class=1 conn=wye
New Load.Carga_IDSeta_2801 phases=3 bus1=X_2801.1.2.3.0 kv=0.38 kW=13.573248722030753 pf=0.93 status=variable model=1 CVRwatts=0.8 CVRvars=3 Class=1 conn=wye
New Load.Carga_IDSeta_2803 phases=3 bus1=X_2803.1.2.3.0 kv=0.38 kW=2.835869788810391 pf=0.93 status=variable model=1 CVRwatts=0.8 CVRvars=3 Class=1 conn=wye
New Load.Carga_IDSeta_97 phases=3 bus1=X_97.1.2.3.0 kv=0.38 kW=41.38063166631782 pf=0.871 status=variable model=1 CVRwatts=0.8 CVRvars=3 Class=1 conn=wye
New Load.Carga_IDSeta_96 phases=3 bus1=X_96.1.2.3.0 kv=0.38 kW=79.15892842577497 pf=0.871 status=variable model=1 CVRwatts=0.8 CVRvars=3 Class=1 conn=wye
New Load.Carga_IDSeta_131 phases=3 bus1=X_131.1.2.3.0 kv=0.38 kW=11.331213439842967 pf=0.871 status=variable model=1 CVRwatts=0.8 CVRvars=3 Class=1 conn=wye
New Load.Carga_IDSeta_132 phases=3 bus1=X_132.1.2.3.0 kv=0.38 kW=22.109314866006496 pf=0.871 status=variable model=1 CVRwatts=0.8 CVRvars=3 Class=1 conn=wye
New Load.Carga_IDSeta_130 phases=3 bus1=X_130.1.2.3.0 kv=0.38 kW=17.29731781051508 pf=0.871 status=variable model=1 CVRwatts=0.8 CVRvars=3 Class=1 conn=wye
New Load.Carga_IDSeta_128 phases=3 bus1=X_128.1.2.3.0 kv=0.38 kW=18.705832493180846 pf=0.871 status=variable model=1 CVRwatts=0.8 CVRvars=3 Class=1 conn=wye
New Load.Carga_IDSeta_129 phases=3 bus1=X_129.1.2.3.0 kv=0.38 kW=19.222582640165417 pf=0.871 status=variable model=1 CVRwatts=0.8 CVRvars=3 Class=1 conn=wye
New Load.Carga_IDSeta_114 phases=3 bus1=X_114.1.2.3.0 kv=0.38 kW=25.42060882759113 pf=0.871 status=variable model=1 CVRwatts=0.8 CVRvars=3 Class=1 conn=wye
New Load.Carga_IDSeta_113 phases=3 bus1=X_113.1.2.3.0 kv=0.38 kW=11.805848736696753 pf=0.871 status=variable model=1 CVRwatts=0.8 CVRvars=3 Class=1 conn=wye
New Load.Carga_IDSeta_107 phases=3 bus1=X_107.1.2.3.0 kv=0.38 kW=6.315721063518304 pf=0.93 status=variable model=1 CVRwatts=0.8 CVRvars=3 Class=1 conn=wye
New Load.Carga_IDSeta_1963 phases=3 bus1=X_1963.1.2.3.0 kv=0.38 kW=10.732153931306387 pf=0.93 status=variable model=1 CVRwatts=0.8 CVRvars=3 Class=1 conn=wye
New Load.Carga_IDSeta_101 phases=3 bus1=X_101.1.2.3.0 kv=0.38 kW=3.976226456535619 pf=0.93 status=variable model=1 CVRwatts=0.8 CVRvars=3 Class=1 conn=wye
! New Load.Carga_IDSeta_116 phases=3 bus1=X_116.1.2.3.0 kv=0.38 kW=0.0 pf=0.871 status=variable model=1 CVRwatts=0.8 CVRvars=3 Class=1 conn=wye
New Load.Carga_IDSeta_92 phases=3 bus1=X_92.1.2.3.0 kv=0.38 kW=2.762320499036519 pf=0.871 status=variable model=1 CVRwatts=0.8 CVRvars=3 Class=1 conn=wye
New Load.Carga_IDSeta_93 phases=3 bus1=X_93.1.2.3.0 kv=0.38 kW=1.6688380965322367 pf=0.871 status=variable model=1 CVRwatts=0.8 CVRvars=3 Class=1 conn=wye
! New Load.Carga_IDSeta_108 phases=3 bus1=X_108.1.2.3.0 kv=0.38 kW=0.0 pf=0.93 status=variable model=1 CVRwatts=0.8 CVRvars=3 Class=1 conn=wye
New Load.Carga_IDSeta_124 phases=3 bus1=X_124.1.2.3.0 kv=0.38 kW=0.7197440136501728 pf=0.93 status=variable model=1 CVRwatts=0.8 CVRvars=3 Class=1 conn=wye
! New Load.Carga_IDSeta_125 phases=3 bus1=X_125.1.2.3.0 kv=0.38 kW=0.0 pf=0.93 status=variable model=1 CVRwatts=0.8 CVRvars=3 Class=1 conn=wye
! New Load.Carga_IDSeta_126 phases=3 bus1=X_126.1.2.3.0 kv=0.38 kW=0.0 pf=0.93 status=variable model=1 CVRwatts=0.8 CVRvars=3 Class=1 conn=wye
! New Load.Carga_IDSeta_127 phases=3 bus1=X_127.1.2.3.0 kv=0.38 kW=0.0 pf=0.93 status=variable model=1 CVRwatts=0.8 CVRvars=3 Class=1 conn=wye
New Load.Carga_IDSeta_3032 phases=3 bus1=X_3032.1.2.3.0 kv=0.38 kW=0.6590896286837408 pf=0.889 status=variable model=1 CVRwatts=0.8 CVRvars=3 Class=1 conn=wye
! New Load.Carga_IDSeta_5034 phases=3 bus1=X_5034.1.2.3.0 kv=0.38 kW=0.0 pf=0.93 status=variable model=1 CVRwatts=0.8 CVRvars=3 Class=1 conn=wye
New Load.Carga_IDSeta_106 phases=3 bus1=X_106.1.2.3.0 kv=0.38 kW=1.1605356627478973 pf=0.877 status=variable model=1 CVRwatts=0.8 CVRvars=3 Class=1 conn=wye
New Load.Carga_IDSeta_5031 phases=3 bus1=X_5031.1.2.3.0 kv=0.38 kW=1.5309255607949228 pf=0.93 status=variable model=1 CVRwatts=0.8 CVRvars=3 Class=1 conn=wye
New Load.Carga_IDSeta_5030 phases=3 bus1=X_5030.1.2.3.0 kv=0.38 kW=0.33962512440843 pf=0.93 status=variable model=1 CVRwatts=0.8 CVRvars=3 Class=1 conn=wye
New Load.Carga_IDSeta_120 phases=3 bus1=X_120.1.2.3.0 kv=0.38 kW=0.3487688777578878 pf=0.93 status=variable model=1 CVRwatts=0.8 CVRvars=3 Class=1 conn=wye
New Load.Carga_IDSeta_2480 phases=3 bus1=X_2480.1.2.3.0 kv=0.38 kW=0.6570439906824627 pf=0.93 status=variable model=1 CVRwatts=0.8 CVRvars=3 Class=1 conn=wye
New Load.Carga_IDSeta_122 phases=3 bus1=X_122.1.2.3.0 kv=0.38 kW=3.6494468132417737 pf=0.889 status=variable model=1 CVRwatts=0.8 CVRvars=3 Class=1 conn=wye
New Load.Carga_IDSeta_143 phases=3 bus1=X_143.1.2.3.0 kv=0.38 kW=0.16130446480997837 pf=0.877 status=variable model=1 CVRwatts=0.8 CVRvars=3 Class=1 conn=wye
New Load.Carga_IDSeta_2934 phases=3 bus1=X_2934.1.2.3.0 kv=0.38 kW=0.3625781775374735 pf=0.877 status=variable model=1 CVRwatts=0.8 CVRvars=3 Class=1 conn=wye
New Load.Carga_IDSeta_140 phases=3 bus1=X_140.1.2.3.0 kv=0.38 kW=0.7808278075314882 pf=0.877 status=variable model=1 CVRwatts=0.8 CVRvars=3 Class=1 conn=wye
New Load.Carga_IDSeta_2800 phases=3 bus1=X_2800.1.2.3.0 kv=0.38 kW=3.9369709198754013 pf=0.877 status=variable model=1 CVRwatts=0.8 CVRvars=3 Class=1 conn=wye
New Load.Carga_IDSeta_134 phases=3 bus1=X_134.1.2.3.0 kv=0.38 kW=0.9321399603620873 pf=0.877 status=variable model=1 CVRwatts=0.8 CVRvars=3 Class=1 conn=wye
New Load.Carga_IDSeta_133 phases=3 bus1=X_133.1.2.3.0 kv=0.38 kW=1.997034922735927 pf=0.877 status=variable model=1 CVRwatts=0.8 CVRvars=3 Class=1 conn=wye
! New Load.Carga_IDSeta_146 phases=3 bus1=X_146.1.2.3.0 kv=0.38 kW=0.0 pf=0.889 status=variable model=1 CVRwatts=0.8 CVRvars=3 Class=1 conn=wye
New Load.Carga_IDSeta_99 phases=3 bus1=X_99.1.2.3.0 kv=0.38 kW=7.6872840659369635 pf=0.93 status=variable model=1 CVRwatts=0.8 CVRvars=3 Class=1 conn=wye
New Load.Carga_IDSeta_138 phases=3 bus1=X_138.1.2.3.0 kv=0.38 kW=30.937825207537472 pf=0.877 status=variable model=1 CVRwatts=0.8 CVRvars=3 Class=1 conn=wye
New Load.Carga_IDSeta_5032 phases=3 bus1=X_5032.1.2.3.0 kv=0.38 kW=3.769838880933573 pf=0.93 status=variable model=1 CVRwatts=0.8 CVRvars=3 Class=1 conn=wye
New Load.Carga_IDSeta_3036 phases=3 bus1=X_3036.1.2.3.0 kv=0.38 kW=0.17001251905976356 pf=0.889 status=variable model=1 CVRwatts=0.8 CVRvars=3 Class=1 conn=wye
...